65

C     -4.144356   -1.339939    2.202335
C     -3.646684   -2.097265    1.218664
C     -2.199045   -2.298922    1.005954
C     -1.704509   -3.604680    1.097004
C     -0.353976   -3.864008    0.893179
C      0.521861   -2.824267    0.595180
C      0.061458   -1.501960    0.483043
B      1.130252   -0.367026    0.136809
C      2.239183   -0.633630   -1.013346
C      3.735501   -0.578278   -0.574039
C      4.038130   -1.624708    0.518290
C      4.608177   -0.895273   -1.807114
C      4.123786    0.823952   -0.057315
C      0.978732    1.072329    0.765601
C      1.016037    2.218078   -0.045672
C      0.850849    3.485802    0.519738
Br     0.852267    5.033205   -0.598049
C      0.667754    3.618622    1.899180
C      0.644566    2.483326    2.714731
Br     0.402491    2.668738    4.599582
C      0.793443    1.212216    2.149710
C     -1.328938   -1.234928    0.662593
C     -1.904667    0.109554    0.367188
C     -2.391817    0.917742    1.419545
C     -2.507256    0.421880    2.805922
C     -3.309387   -0.588659    3.158150
C     -2.731221    2.250722    1.170696
C     -2.660311    2.771533   -0.117450
C     -2.264372    1.965432   -1.192176
C     -2.223165    2.562123   -2.573079
C     -1.876736    0.625106   -0.955767
N     -1.436918   -0.201891   -2.048899
C     -1.915356   -1.419569   -2.369163
C     -1.221570   -1.884100   -3.464491
C     -0.325682   -0.877227   -3.766532
N     -0.476217    0.137227   -2.893979
H     -5.209980   -1.376618    2.389187
H     -4.333207   -2.712282    0.649624
H     -2.368816   -4.426934    1.335077
H      0.018510   -4.877208    0.973140
H      1.565607   -3.064465    0.458673
H      2.071793    0.104746   -1.824567
H      2.029576   -1.626336   -1.466412
H      3.841471   -2.651049    0.142668
H      5.106130   -1.573100    0.822061
H      3.418670   -1.448554    1.423289
H      5.688068   -0.882014   -1.543268
H      4.365665   -1.901215   -2.213361
H      4.438287   -0.145885   -2.610496
H      5.222401    0.894621    0.096142
H      3.825990    1.607943   -0.786150
H      3.646081    1.038962    0.920294
H      1.139082    2.133000   -1.117517
H      0.540549    4.600851    2.335649
H      0.764795    0.338519    2.790067
H     -2.044116    1.002211    3.593515
H     -3.459022   -0.780914    4.212892
H     -3.063024    2.890470    1.979765
H     -2.931150    3.807856   -0.277939
H     -1.174158    2.809561   -2.838911
H     -2.637192    1.848242   -3.315981
H     -2.829288    3.491328   -2.630352
H     -2.715522   -1.931846   -1.851311
H     -1.352862   -2.827076   -3.977527
H      0.393355   -0.884072   -4.574270
