48

C     -2.021577   -3.526429    2.378453
N     -1.747129   -2.261988    1.991845
C     -1.090338   -2.207328    0.800836
B     -0.703318   -0.813522    0.173532
C      0.675793   -0.560678   -0.545062
C      1.769048   -1.293764   -0.289380
C      3.080601   -1.008879   -0.966660
C      3.699933    0.294811   -0.448551
C      5.063806    0.551337   -1.098895
C      5.681592    1.850154   -0.589171
C     -1.684775    0.418225    0.382786
C     -1.365713    1.441098    1.323847
C     -0.092550    1.409255    2.161434
F      1.000450    1.652572    1.351460
F      0.055191    0.177456    2.773159
F     -0.108274    2.367778    3.160641
C     -2.242179    2.531814    1.468789
C     -3.425608    2.620183    0.729113
C     -4.381295    3.767635    0.955208
F     -3.694236    4.917069    1.306160
F     -5.255294    3.437122    1.973873
F     -5.107617    4.035461   -0.192480
C     -3.759849    1.586761   -0.151493
C     -2.896424    0.497063   -0.363862
C     -3.295695   -0.571097   -1.374518
F     -4.413317   -0.202196   -2.104057
F     -2.265766   -0.788499   -2.272286
F     -3.585207   -1.750551   -0.714455
C     -0.867950   -3.457216    0.208646
C     -0.249025   -3.753150   -1.122043
S     -1.476419   -4.635333    1.241925
H     -2.532388   -3.772805    3.299035
H      0.742069    0.290715   -1.215883
H      1.726297   -2.116864    0.418345
H      3.774725   -1.851962   -0.758728
H      2.926550   -0.952713   -2.066622
H      3.824026    0.228874    0.655266
H      3.021493    1.145901   -0.676979
H      5.753761   -0.289532   -0.868187
H      4.946039    0.617887   -2.202557
H      6.666827    2.009268   -1.075940
H      5.022940    2.711575   -0.830517
H      5.832464    1.800222    0.510301
H     -2.012309    3.322308    2.171282
H     -4.702723    1.642746   -0.679762
H     -0.720436   -4.657141   -1.560677
H     -0.402322   -2.909163   -1.825327
H      0.836129   -3.944479   -0.996874
